STAAD SPACE
START JOB INFORMATION
ENGINEER DATE 17-Sep-21
JOB NAME G+3 RCC Building
ENGINEER NAME Team 7
END JOB INFORMATION
INPUT WIDTH 79
UNIT METER KN
JOINT COORDINATES
1 0 0 0; 2 6 0 0; 3 12 0 0; 4 18 0 0; 5 0 0 6; 6 6 0 6; 7 12 0 6; 8 18 0 6;
9 0 0 10; 10 6 0 10; 11 12 0 10; 12 18 0 10; 13 0 0 16; 14 6 0 16; 15 12 0 16;
16 18 0 16; 17 3 0 0; 18 9 0 0; 19 15 0 0; 21 3 0 6; 22 9 0 6; 23 15 0 6;
25 3 0 10; 26 9 0 10; 27 15 0 10; 29 3 0 16; 30 9 0 16; 31 15 0 16; 32 0 -3 0;
33 6 -3 0; 34 12 -3 0; 35 18 -3 0; 36 0 -3 6; 37 6 -3 6; 38 12 -3 6;
39 18 -3 6; 40 0 -3 10; 41 6 -3 10; 42 12 -3 10; 43 18 -3 10; 44 0 -3 16;
45 6 -3 16; 46 12 -3 16; 47 18 -3 16; 48 0 3.35 0; 49 6 3.35 0; 50 12 3.35 0;
51 18 3.35 0; 52 0 3.35 6; 53 6 3.35 6; 54 12 3.35 6; 55 18 3.35 6;
56 0 3.35 10; 57 6 3.35 10; 58 12 3.35 10; 59 18 3.35 10; 60 0 3.35 16;
61 6 3.35 16; 62 12 3.35 16; 63 18 3.35 16; 64 0 6.7 0; 65 6 6.7 0;
66 12 6.7 0; 67 18 6.7 0; 68 0 6.7 6; 69 6 6.7 6; 70 12 6.7 6; 71 18 6.7 6;
72 0 6.7 10; 73 6 6.7 10; 74 12 6.7 10; 75 18 6.7 10; 76 0 6.7 16; 77 6 6.7 16;
78 12 6.7 16; 79 18 6.7 16; 80 0 10.05 0; 81 6 10.05 0; 82 12 10.05 0;
83 18 10.05 0; 84 0 10.05 6; 85 6 10.05 6; 86 12 10.05 6; 87 18 10.05 6;
88 0 10.05 10; 89 6 10.05 10; 90 12 10.05 10; 91 18 10.05 10; 92 0 10.05 16;
93 6 10.05 16; 94 12 10.05 16; 95 18 10.05 16; 112 3 3.35 0; 113 9 3.35 0;
114 15 3.35 0; 115 3 3.35 6; 116 9 3.35 6; 117 15 3.35 6; 118 3 3.35 10;
119 9 3.35 10; 120 15 3.35 10; 121 3 3.35 16; 122 9 3.35 16; 123 15 3.35 16;
124 3 6.7 0; 125 9 6.7 0; 126 15 6.7 0; 127 3 6.7 6; 128 9 6.7 6; 129 15 6.7 6;
130 3 6.7 10; 131 9 6.7 10; 132 15 6.7 10; 133 3 6.7 16; 134 9 6.7 16;
# ... 15 like lines cut
MEMBER INCIDENCES
1 1 17; 2 2 18; 3 3 19; 4 1 5; 5 2 6; 6 3 7; 7 4 8; 8 5 21; 9 6 22; 10 7 23;
11 5 9; 12 6 10; 13 7 11; 14 8 12; 15 9 25; 16 10 26; 17 11 27; 18 9 13;
19 10 14; 20 11 184; 21 12 16; 22 13 29; 23 14 30; 24 15 31; 25 17 2; 26 18 3;
27 19 4; 28 21 6; 29 22 7; 30 23 8; 31 25 10; 32 26 11; 33 27 12; 34 29 14;
35 30 15; 36 31 16; 37 17 21; 38 18 22; 39 19 23; 41 25 29; 42 26 30; 43 27 31;
44 1 32; 45 2 33; 46 3 34; 47 4 35; 48 5 36; 49 6 37; 50 7 38; 51 8 39;
52 9 40; 53 10 41; 54 11 42; 55 12 43; 56 13 44; 57 14 45; 58 15 209; 59 16 47;
60 1 48; 61 2 49; 62 3 50; 63 4 51; 64 5 52; 65 6 53; 66 7 54; 67 8 55;
68 9 56; 69 10 57; 70 11 58; 71 12 59; 72 13 60; 73 14 61; 74 15 175; 75 16 63;
76 48 64; 77 49 65; 78 50 66; 79 51 67; 80 52 68; 81 53 69; 82 54 70; 83 55 71;
84 56 72; 85 57 73; 86 58 74; 87 59 75; 88 60 76; 89 61 77; 90 62 185;
91 63 79; 92 64 80; 93 65 81; 94 66 82; 95 67 83; 96 68 84; 97 69 85; 98 70 86;
99 71 87; 100 72 88; 101 73 89; 102 74 90; 103 75 91; 104 76 92; 105 77 93;
106 78 193; 107 79 95; 124 48 112; 125 49 113; 126 50 114; 127 48 52;
128 49 53; 129 50 54; 130 51 55; 131 52 115; 132 53 116; 133 54 117; 134 52 56;
135 53 57; 136 54 58; 137 55 59; 138 56 118; 139 57 119; 140 58 120; 141 56 60;
142 57 61; 143 58 192; 144 59 63; 145 60 121; 146 61 122; 147 62 123;
148 112 49; 149 113 50; 150 114 51; 151 115 53; 152 116 54; 153 117 55;
154 118 57; 155 119 58; 156 120 59; 157 121 61; 158 122 62; 159 123 63;
160 112 115; 161 113 116; 162 114 117; 163 118 121; 164 119 122; 165 120 123;
# ... 18 like lines cut
ELEMENT INCIDENCES SHELL
319 160 5 9 161; 322 162 52 56 163; 325 164 68 72 165; 328 166 84 88 167;
335 177 175 176 178; 336 184 183 180 177; 337 182 180 178 181;
340 187 185 186 188; 341 192 182 189 187; 342 191 189 188 190;
345 195 193 194 196; 346 200 191 197 195; 347 199 197 196 198;
354 212 210 209 211; 355 216 211 214 215; 356 214 183 217 212; 357 1 4 16 13;
358 48 51 63 60; 359 64 67 79 76; 360 80 83 95 92;
START GROUP DEFINITION
FLOOR
END GROUP DEFINITION
ELEMENT PROPERTY
319 322 325 328 357 TO 360 THICKNESS 0.15
335 TO 337 340 TO 342 345 TO 347 354 TO 356 THICKNESS 0.12
MEMBER PROPERTY AMERICAN
1 TO 39 41 TO 43 124 TO 249 292 TO 294 297 TO 299 302 TO 304 307 TO 309 334 -
339 344 349 PRIS YD 0.35 ZD 0.3
44 TO 107 295 296 300 301 305 306 316 317 333 338 343 353 PRIS YD 0.35 ZD 0.45
DEFINE MATERIAL START
ISOTROPIC CONCRETE
E 2.17185e+007
POISSON 0.17
DENSITY 23.5616
ALPHA 1e-005
DAMP 0.05
G 9.28139e+006
TYPE CONCRETE
STRENGTH FCU 27579
END DEFINE MATERIAL
CONSTANTS
MATERIAL CONCRETE ALL
MEMBER RELEASE
37 TO 39 41 TO 43 160 TO 165 202 TO 207 244 TO 249 START MY MZ
37 TO 39 41 TO 43 160 TO 165 202 TO 207 244 TO 249 END MY MZ
SUPPORTS
32 TO 47 173 174 FIXED
DEFINE WIND LOAD
TYPE 1 WIND 1
INT 0.6 0.6 0.8 0.9 HEIG  10  15  20  25
LOAD 1 LOADTYPE Dead  TITLE DL
SELFWEIGHT Y -1 
LOAD 2 LOADTYPE Live REDUCIBLE TITLE LL
FLOOR LOAD
YRANGE 0 13.05 FLOAD -4 GY
LOAD 4 LOADTYPE Wind  TITLE WL +X
WIND LOAD X 1 TYPE 1
WIND LOAD -X 1 TYPE 1
WIND LOAD -Z 1 TYPE 1
WIND LOAD -Z -1 TYPE 1
LOAD 5 LOADTYPE Wind  TITLE WL -X
WIND LOAD X -1 TYPE 1
WIND LOAD -X -1 TYPE 1
WIND LOAD -Z 1 TYPE 1
WIND LOAD -Z -1 TYPE 1
LOAD 6 LOADTYPE Wind  TITLE WL +Z
WIND LOAD Z 1 TYPE 1
WIND LOAD -Z 1 TYPE 1
WIND LOAD -X 1 TYPE 1
WIND LOAD -X -1 TYPE 1
LOAD 7 LOADTYPE Wind  TITLE WL -Z
WIND LOAD Z -1 TYPE 1
WIND LOAD -Z -1 TYPE 1
WIND LOAD -X -1 TYPE 1
WIND LOAD -X 1 TYPE 1
LOAD 8 LOADTYPE Live  TITLE FLOOR FINISH
FLOOR LOAD
YRANGE 0 13.05 FLOAD -1 GY
PERFORM ANALYSIS PRINT ALL
START CONCRETE DESIGN
CODE INDIAN
FC 20000 ALL
FYMAIN 415000 ALL
FYSEC 415000 ALL
DESIGN BEAM 1 TO 39 41 TO 43 124 TO 249 292 TO 294 297 TO 299 302 TO 304 307 -
308 TO 309 334 339 344 349
DESIGN COLUMN 44 TO 107 295 296 300 301 305 306 316 317 333 338 343 353
DESIGN ELEMENT 319 322 325 328 335 TO 337 340 TO 342 345 TO 347 354 TO 360
CONCRETE TAKE
END CONCRETE DESIGN
FINISH
